data_image0
_chemical_formula_structural       As6Si2
_chemical_formula_sum              "As6 Si2"
_cell_length_a       6.83542723899468
_cell_length_b       7.249414045201388
_cell_length_c       7.2490150648232525
_cell_angle_alpha    120.00061347536212
_cell_angle_beta     92.82799599313879
_cell_angle_gamma    84.22987082609801

_space_group_name_H-M_alt    "P 1"
_space_group_IT_number       1

loop_
  _space_group_symop_operation_xyz
  'x, y, z'

loop_
  _atom_site_type_symbol
  _atom_site_label
  _atom_site_symmetry_multiplicity
  _atom_site_fract_x
  _atom_site_fract_y
  _atom_site_fract_z
  _atom_site_occupancy
  As  As1       1.0  0.5034411313646799  0.8387221318693178  0.68336114584076  1.0000
  As  As2       1.0  0.29643990531169984  0.18029856315367054  0.3320165360929065  1.0000
  As  As3       1.0  0.2973605572142695  0.6952802715471631  0.8450045236536317  1.0000
  As  As4       1.0  0.5029550161546269  0.3239707007015777  0.1710549484262931  1.0000
  As  As5       1.0  0.29648358743621234  0.18224511200200497  0.8471052667247516  1.0000
  As  As6       1.0  0.5038143274975909  0.8370216309750982  0.16897773196607352  1.0000
  Si  Si1       1.0  0.33637624402709165  0.6826482556592116  0.3410908769648081  1.0000
  Si  Si2       1.0  0.4632567157844951  0.3363301185437563  0.6743397990219685  1.0000
