# generated using pymatgen
data_SiAs3
_symmetry_space_group_name_H-M   'P 1'
_cell_length_a   5.00000000
_cell_length_b   7.33333333
_cell_length_c   7.33620327
_cell_angle_alpha   119.98705997
_cell_angle_beta   90.00000000
_cell_angle_gamma   90.00000000
_symmetry_Int_Tables_number   1
_chemical_formula_structural   SiAs3
_chemical_formula_sum   'Si2 As6'
_cell_volume   232.98611111
_cell_formula_units_Z   2
loop_
 _symmetry_equiv_pos_site_id
 _symmetry_equiv_pos_as_xyz
  1  'x, y, z'
loop_
 _atom_site_type_symbol
 _atom_site_label
 _atom_site_symmetry_multiplicity
 _atom_site_fract_x
 _atom_site_fract_y
 _atom_site_fract_z
 _atom_site_occupancy
  As  As1  1  0.39990122  0.84788477  0.68688525  1.0
  As  As2  1  0.39962303  0.16886838  0.32885246  1.0
  As  As25  1  0.39959596  0.68740686  0.84754098  1.0
  As  As26  1  0.40039552  0.33409836  0.16819672  1.0
  As  As27  1  0.39988797  0.17377049  0.84754098  1.0
  As  As28  1  0.39990435  0.84773472  0.16819672  1.0
  Si  Si1  1  0.40087412  0.67509788  0.34131147  1.0
  Si  Si2  1  0.39980580  0.34165526  0.67442623  1.0
